147

Au   13.9309   12.2892   13.6406
Au   13.9309   14.3609   15.7123
Au   16.0026   12.2892   15.7123
Au   13.9309   10.2176   15.7123
Au   11.8593   12.2892   15.7123
Au   13.9309   14.3609   11.5690
Au   16.0026   12.2892   11.5690
Au   13.9309   10.2176   11.5690
Au   11.8593   12.2892   11.5690
Au   16.0026   14.3609   13.6406
Au   16.0026   10.2176   13.6406
Au   11.8593   10.2176   13.6406
Au   11.8593   14.3609   13.6406
Au   13.9309   16.4282   17.7796
Au   18.0699   12.2892   17.7796
Au   13.9309    8.1502   17.7796
Au    9.7919   12.2892   17.7796
Au   13.9309   16.4282    9.5016
Au   18.0699   12.2892    9.5016
Au   13.9309    8.1502    9.5016
Au    9.7716   12.2821    9.4741
Au   18.0699   16.4282   13.6406
Au   18.0699    8.1502   13.6406
Au    9.7919    8.1502   13.6406
Au    9.7919   16.4282   13.6406
Au   15.9769   14.3352   17.8027
Au   15.9769   16.4513   15.6866
Au   18.0930   14.3352   15.6866
Au   15.9769   10.2433   17.8027
Au   18.0930   10.2433   15.6866
Au   15.9769    8.1272   15.6866
Au   11.8850   10.2433   17.8027
Au   11.8850    8.1272   15.6866
Au    9.7689   10.2433   15.6866
Au   11.8850   14.3352   17.8027
Au   11.8850   16.4513   15.6866
Au    9.7689   14.3352   15.6866
Au   15.9769   14.3352    9.4786
Au   15.9769   16.4513   11.5947
Au   18.0930   14.3352   11.5947
Au   15.9769   10.2433    9.4786
Au   18.0930   10.2433   11.5947
Au   15.9769    8.1272   11.5947
Au   11.8850   10.2433    9.4786
Au   11.8850    8.1272   11.5947
Au    9.7689   10.2433   11.5947
Au   11.8850   14.3352    9.4786
Au   11.8850   16.4513   11.5947
Au    9.7689   14.3352   11.5947
Au   13.9309   12.2892   17.8559
Au   13.9309   12.2892    9.4253
Au   13.9309   16.5045   13.6406
Au   13.9309    8.0739   13.6406
Au    9.7156   12.2892   13.6406
Au   18.1462   12.2892   13.6406
Ag   13.9309   18.4020   19.7534
Ag   20.0437   12.2892   19.7534
Ag   13.9309    6.1765   19.7534
Ag    7.8182   12.2892   19.7534
Ag   13.9309   18.4020    7.5279
Ag   20.0437   12.2892    7.5279
Ag   13.9309    6.1765    7.5279
Ag    7.8196   12.2956    7.5483
Ag   20.0437   18.4020   13.6406
Ag   20.0437    6.1765   13.6406
Ag    7.8182    6.1765   13.6406
Ag    7.8182   18.4020   13.6406
Ag   15.9800   16.3729   19.7909
Ag   15.9800   18.4395   17.7243
Ag   20.0812   14.3383   17.7243
Ag   18.0146   14.3383   19.7909
Ag   18.0146   18.4395   15.6897
Ag   20.0812   16.3729   15.6897
Ag   18.0146   10.2402   19.7909
Ag   20.0812   10.2402   17.7243
Ag   15.9800    6.1390   17.7243
Ag   15.9800    8.2056   19.7909
Ag   20.0812    8.2056   15.6897
Ag   18.0146    6.1390   15.6897
Ag   11.8819    8.2056   19.7909
Ag   11.8819    6.1390   17.7243
Ag    7.7807   10.2402   17.7243
Ag    9.8473   10.2402   19.7909
Ag    9.8473    6.1390   15.6897
Ag    7.7807    8.2056   15.6897
Ag   11.8819   16.3729   19.7909
Ag   11.8819   18.4395   17.7243
Ag    7.7807   14.3383   17.7243
Ag    9.8473   14.3383   19.7909
Ag    9.8473   18.4395   15.6897
Ag    7.7807   16.3729   15.6897
Ag   15.9800   16.3729    7.4904
Ag   15.9800   18.4395    9.5570
Ag   20.0812   14.3383    9.5570
Ag   18.0146   14.3383    7.4904
Ag   18.0146   18.4395   11.5916
Ag   20.0812   16.3729   11.5916
Ag   18.0146   10.2402    7.4904
Ag   20.0812   10.2402    9.5570
Ag   15.9800    6.1390    9.5570
Ag   15.9800    8.2056    7.4904
Ag   20.0812    8.2056   11.5916
Ag   18.0146    6.1390   11.5916
Ag   11.8819    8.2056    7.4904
Ag   11.8819    6.1390    9.5570
Ag    7.7777   10.2184    9.5642
Ag    9.8652   10.2363    7.4747
Ag    9.8473    6.1390   11.5916
Ag    7.7807    8.2056   11.5916
Ag   11.8819   16.3729    7.4904
Ag   11.8819   18.4395    9.5570
Ag    7.7777   14.3582    9.5695
Ag    9.8672   14.3412    7.4777
Ag    9.8473   18.4395   11.5916
Ag    7.7807   16.3729   11.5916
Ag   13.9309   14.3238   19.9299
Ag   11.8964   12.2892   19.9299
Ag   15.9655   12.2892   19.9299
Ag   13.9309   10.2547   19.9299
Ag   13.9309   14.3238    7.3514
Ag   11.9097   12.2890    7.3519
Ag   15.9655   12.2892    7.3514
Ag   13.9309   10.2547    7.3514
Ag   13.9309   18.5785   11.6061
Ag   11.8964   18.5785   13.6406
Ag   15.9655   18.5785   13.6406
Ag   13.9309   18.5785   15.6752
Ag   13.9309    6.0000   11.6061
Ag   11.8964    6.0000   13.6406
Ag   15.9655    6.0000   13.6406
Ag   13.9309    6.0000   15.6752
Ag    7.6417   14.3238   13.6406
Ag    7.6591   12.2880   11.6025
Ag    7.6417   12.2892   15.6752
Ag    7.6417   10.2547   13.6406
Ag   20.2202   14.3238   13.6406
Ag   20.2202   12.2892   11.6061
Ag   20.2202   12.2892   15.6752
Ag   20.2202   10.2547   13.6406
Ag   18.0697   16.4280   17.7794
Ag   18.0697    8.1504   17.7794
Ag    9.7921    8.1504   17.7794
Ag    9.7921   16.4280   17.7794
Ag   18.0697   16.4280    9.5018
Ag   18.0697    8.1504    9.5018
Ag    9.7921    8.1504    9.5018
Ag    9.7921   16.4280    9.5018
